# created with PyMOL 2.3.3
@<TRIPOS>MOLECULE
2msa
203 205 15              
SMALL
USER_CHARGES
@<TRIPOS>ATOM
1	   N	-21.190	0.069	-0.601	N.3	1	LYS1	0.000	
2	  CA	-19.962	0.017	-1.424	C.3	1	LYS1	0.000	
3	   C	-18.739	-0.086	-0.474	C.2	1	LYS1	0.000	
4	   O	-18.410	0.869	0.240	O.2	1	LYS1	0.000	
5	  CB	-19.918	1.244	-2.372	C.3	1	LYS1	0.000	
6	  CG	-18.788	1.197	-3.429	C.3	1	LYS1	0.000	
7	  CD	-18.779	2.379	-4.425	C.3	1	LYS1	0.000	
8	  CE	-18.432	3.772	-3.855	C.3	1	LYS1	0.000	
9	  NZ	-17.037	3.882	-3.385	N.4	1	LYS1	0.000	
10	  HA	-20.040	-0.890	-2.056	 H	1	LYS1	0.000	
11	 HB2	-20.883	1.329	-2.910	 H	1	LYS1	0.000	
12	 HB3	-19.834	2.175	-1.778	 H	1	LYS1	0.000	
13	 HG2	-17.804	1.126	-2.930	 H	1	LYS1	0.000	
14	 HG3	-18.884	0.259	-4.008	 H	1	LYS1	0.000	
15	 HD2	-18.077	2.143	-5.247	 H	1	LYS1	0.000	
16	 HD3	-19.768	2.436	-4.917	 H	1	LYS1	0.000	
17	 HE2	-18.597	4.534	-4.639	 H	1	LYS1	0.000	
18	 HE3	-19.120	4.042	-3.033	 H	1	LYS1	0.000	
19	 HZ2	-16.390	3.719	-4.164	 H	1	LYS1	0.000	
20	 HZ3	-16.849	4.838	-3.065	 H	1	LYS1	0.000	
21	  H1	-22.016	0.139	-1.206	 H	1	LYS1	0.000	
22	  H2	-21.194	0.920	-0.028	 H	1	LYS1	0.000	
23	   N	-18.063	-1.251	-0.490	N.am	2	ASN2	0.000	
24	  CA	-16.919	-1.544	0.407	C.3	2	ASN2	0.000	
25	   C	-15.606	-0.938	-0.165	C.2	2	ASN2	0.000	
26	   O	-15.169	-1.300	-1.263	O.2	2	ASN2	0.000	
27	  CB	-16.767	-3.076	0.637	C.3	2	ASN2	0.000	
28	  CG	-17.801	-3.717	1.586	C.2	2	ASN2	0.000	
29	 ND2	-18.988	-4.031	1.091	N.pl3	2	ASN2	0.000	
30	 OD1	-17.537	-3.936	2.768	O.2	2	ASN2	0.000	
31	   H	-18.503	-2.001	-1.025	 H	2	ASN2	0.000	
32	  HA	-17.159	-1.106	1.390	 H	2	ASN2	0.000	
33	 HB2	-16.746	-3.618	-0.330	 H	2	ASN2	0.000	
34	 HB3	-15.771	-3.279	1.077	 H	2	ASN2	0.000	
35	HD21	-19.161	-3.729	0.127	 H	2	ASN2	0.000	
36	HD22	-19.666	-4.440	1.743	 H	2	ASN2	0.000	
37	   N	-14.978	-0.034	0.610	N.am	3	SER3	0.000	
38	  CA	-13.720	0.640	0.217	C.3	3	SER3	0.000	
39	   C	-12.478	-0.272	0.430	C.2	3	SER3	0.000	
40	   O	-12.193	-0.696	1.555	O.2	3	SER3	0.000	
41	  CB	-13.601	1.976	0.961	C.3	3	SER3	0.000	
42	  OG	-12.477	2.723	0.508	O.3	3	SER3	0.000	
43	   H	-15.492	0.266	1.440	 H	3	SER3	0.000	
44	  HA	-13.821	0.944	-0.825	 H	3	SER3	0.000	
45	 HB2	-14.513	2.593	0.830	 H	3	SER3	0.000	
46	 HB3	-13.498	1.773	2.031	 H	3	SER3	0.000	
47	  HG	-12.628	2.887	-0.426	 H	3	SER3	0.000	
48	   N	-11.740	-0.542	-0.664	N.am	4	PHE4	0.000	
49	  CA	-10.527	-1.394	-0.637	C.3	4	PHE4	0.000	
50	   C	-9.293	-0.631	-0.069	C.2	4	PHE4	0.000	
51	   O	-8.944	0.455	-0.545	O.2	4	PHE4	0.000	
52	  CB	-10.272	-1.981	-2.045	C.3	4	PHE4	0.000	
53	  CG	-9.116	-2.999	-2.147	C.2	4	PHE4	0.000	
54	 CD1	-9.319	-4.337	-1.792	C.2	4	PHE4	0.000	
55	 CD2	-7.839	-2.580	-2.540	C.2	4	PHE4	0.000	
56	 CE1	-8.259	-5.241	-1.825	C.2	4	PHE4	0.000	
57	 CE2	-6.781	-3.484	-2.568	C.2	4	PHE4	0.000	
58	  CZ	-6.991	-4.813	-2.211	C.2	4	PHE4	0.000	
59	   H	-12.136	-0.226	-1.550	 H	4	PHE4	0.000	
60	  HA	-10.767	-2.270	-0.034	 H	4	PHE4	0.000	
61	 HB2	-11.196	-2.455	-2.431	 H	4	PHE4	0.000	
62	 HB3	-10.098	-1.137	-2.719	 H	4	PHE4	0.000	
63	 HD1	-10.295	-4.679	-1.476	 H	4	PHE4	0.000	
64	 HD2	-7.658	-1.547	-2.802	 H	4	PHE4	0.000	
65	 HE1	-8.419	-6.272	-1.545	 H	4	PHE4	0.000	
66	 HE2	-5.795	-3.154	-2.860	 H	4	PHE4	0.000	
67	  HZ	-6.169	-5.513	-2.231	 H	4	PHE4	0.000	
68	   N	-8.618	-1.254	0.916	N.am	5	SER5	0.000	
69	  CA	-7.399	-0.701	1.540	C.3	5	SER5	0.000	
70	   C	-6.146	-1.010	0.671	C.2	5	SER5	0.000	
71	   O	-5.758	-2.173	0.510	O.2	5	SER5	0.000	
72	  CB	-7.271	-1.218	2.979	C.3	5	SER5	0.000	
73	  OG	-6.172	-0.610	3.649	O.3	5	SER5	0.000	
74	   H	-9.068	-2.084	1.302	 H	5	SER5	0.000	
75	  HA	-7.547	0.369	1.674	 H	5	SER5	0.000	
76	 HB2	-8.195	-1.024	3.560	 H	5	SER5	0.000	
77	 HB3	-7.127	-2.303	2.950	 H	5	SER5	0.000	
78	  HG	-6.358	0.332	3.661	 H	5	SER5	0.000	
79	   N	-5.520	0.051	0.129	N.am	6	LEU6	0.000	
80	  CA	-4.317	-0.056	-0.724	C.3	6	LEU6	0.000	
81	   C	-3.031	-0.230	0.132	C.2	6	LEU6	0.000	
82	   O	-2.716	0.619	0.975	O.2	6	LEU6	0.000	
83	  CB	-4.192	1.183	-1.651	C.3	6	LEU6	0.000	
84	  CG	-5.239	1.317	-2.802	C.3	6	LEU6	0.000	
85	 CD1	-5.061	2.679	-3.483	C.3	6	LEU6	0.000	
86	 CD2	-5.135	0.187	-3.842	C.3	6	LEU6	0.000	
87	   H	-5.980	0.952	0.251	 H	6	LEU6	0.000	
88	  HA	-4.464	-0.914	-1.392	 H	6	LEU6	0.000	
89	 HB2	-4.192	2.099	-1.025	 H	6	LEU6	0.000	
90	 HB3	-3.182	1.182	-2.109	 H	6	LEU6	0.000	
91	  HG	-6.277	1.294	-2.417	 H	6	LEU6	0.000	
92	HD11	-5.806	2.825	-4.286	 H	6	LEU6	0.000	
93	HD12	-5.196	3.502	-2.757	 H	6	LEU6	0.000	
94	HD13	-4.054	2.784	-3.927	 H	6	LEU6	0.000	
95	HD21	-5.856	0.330	-4.667	 H	6	LEU6	0.000	
96	HD22	-4.123	0.120	-4.280	 H	6	LEU6	0.000	
97	HD23	-5.368	-0.795	-3.395	 H	6	LEU6	0.000	
98	   N	-2.293	-1.328	-0.114	N.am	7	GLY7	0.000	
99	  CA	-1.019	-1.610	0.588	C.3	7	GLY7	0.000	
100	   C	0.194	-1.049	-0.178	C.2	7	GLY7	0.000	
101	   O	0.849	-1.780	-0.926	O.2	7	GLY7	0.000	
102	   H	-2.664	-1.949	-0.842	 H	7	GLY7	0.000	
103	 HA2	-1.039	-1.245	1.635	 H	7	GLY7	0.000	
104	 HA3	-0.910	-2.707	0.679	 H	7	GLY7	0.000	
105	   N	0.496	0.241	0.055	N.am	8	GLU8	0.000	
106	  CA	1.622	0.952	-0.597	C.3	8	GLU8	0.000	
107	   C	2.989	0.588	0.049	C.2	8	GLU8	0.000	
108	   O	3.175	0.738	1.262	O.2	8	GLU8	0.000	
109	  CB	1.384	2.503	-0.509	C.3	8	GLU8	0.000	
110	  CG	0.082	3.054	-1.144	C.3	8	GLU8	0.000	
111	  CD	-0.026	2.848	-2.659	C.2	8	GLU8	0.000	
112	 OE1	0.422	3.644	-3.484	O.co2	8	GLU8	0.000	
113	 OE2	-0.673	1.682	-2.982	O.2	8	GLU8	0.000	
114	   H	-0.253	0.778	0.493	 H	8	GLU8	0.000	
115	  HA	1.601	0.618	-1.661	 H	8	GLU8	0.000	
116	 HB2	1.430	2.848	0.546	 H	8	GLU8	0.000	
117	 HB3	2.232	3.056	-0.941	 H	8	GLU8	0.000	
118	 HG2	-0.804	2.620	-0.643	 H	8	GLU8	0.000	
119	 HG3	0.016	4.138	-0.936	 H	8	GLU8	0.000	
120	 HE2	-0.947	1.196	-2.201	 H	8	GLU8	0.000	
121	   N	3.942	0.132	-0.786	N.am	9	ASN9	0.000	
122	  CA	5.299	-0.262	-0.338	C.3	9	ASN9	0.000	
123	   C	6.211	0.994	-0.097	C.2	9	ASN9	0.000	
124	   O	6.380	1.773	-1.042	O.2	9	ASN9	0.000	
125	  CB	5.909	-1.239	-1.383	C.3	9	ASN9	0.000	
126	  CG	7.271	-1.856	-0.996	C.2	9	ASN9	0.000	
127	 ND2	7.282	-2.935	-0.227	N.pl3	9	ASN9	0.000	
128	 OD1	8.326	-1.358	-1.388	O.2	9	ASN9	0.000	
129	   H	3.636	-0.051	-1.743	 H	9	ASN9	0.000	
130	  HA	5.162	-0.854	0.577	 H	9	ASN9	0.000	
131	 HB2	5.195	-2.061	-1.595	 H	9	ASN9	0.000	
132	 HB3	6.027	-0.723	-2.356	 H	9	ASN9	0.000	
133	HD21	6.369	-3.316	0.046	 H	9	ASN9	0.000	
134	HD22	8.203	-3.320	0.008	 H	9	ASN9	0.000	
135	   N	6.889	1.162	1.079	N.am	10	PRO10	0.000	
136	  CA	7.759	2.292	1.406	C.3	10	PRO10	0.000	
137	   C	8.816	2.794	0.386	C.2	10	PRO10	0.000	
138	   O	9.374	2.002	-0.383	O.2	10	PRO10	0.000	
139	  CB	8.340	1.962	2.786	C.3	10	PRO10	0.000	
140	  CG	7.610	0.725	3.247	C.3	10	PRO10	0.000	
141	  CD	6.377	0.788	2.396	C.3	10	PRO10	0.000	
142	  HA	6.990	3.010	1.649	 H	10	PRO10	0.000	
143	 HB2	9.432	1.854	2.794	 H	10	PRO10	0.000	
144	 HB3	8.046	2.744	3.496	 H	10	PRO10	0.000	
145	 HG2	8.150	-0.172	2.970	 H	10	PRO10	0.000	
146	 HG3	7.397	0.716	4.330	 H	10	PRO10	0.000	
147	 HD2	5.864	-0.108	2.392	 H	10	PRO10	0.000	
148	 HD3	5.682	1.526	2.811	 H	10	PRO10	0.000	
149	   N	9.108	4.111	0.432	N.am	11	ASN11	0.000	
150	  CA	10.127	4.757	-0.440	C.3	11	ASN11	0.000	
151	   C	11.547	4.157	-0.180	C.2	11	ASN11	0.000	
152	   O	12.056	4.199	0.945	O.2	11	ASN11	0.000	
153	  CB	9.992	6.305	-0.391	C.3	11	ASN11	0.000	
154	  CG	10.599	7.057	0.805	C.2	11	ASN11	0.000	
155	 ND2	11.891	7.306	0.714	N.pl3	11	ASN11	0.000	
156	 OD1	9.931	7.402	1.780	O.2	11	ASN11	0.000	
157	   H	8.523	4.668	1.060	 H	11	ASN11	0.000	
158	  HA	9.848	4.536	-1.476	 H	11	ASN11	0.000	
159	 HB2	10.423	6.716	-1.326	 H	11	ASN11	0.000	
160	 HB3	8.924	6.588	-0.473	 H	11	ASN11	0.000	
161	HD21	12.326	6.799	-0.068	 H	11	ASN11	0.000	
162	HD22	12.350	7.698	1.542	 H	11	ASN11	0.000	
163	   N	12.146	3.571	-1.237	N.am	12	ALA12	0.000	
164	  CA	13.494	2.927	-1.193	C.3	12	ALA12	0.000	
165	   C	13.598	1.717	-0.194	C.2	12	ALA12	0.000	
166	   O	14.585	1.582	0.538	O.2	12	ALA12	0.000	
167	  CB	14.611	4.004	-0.986	C.3	12	ALA12	0.000	
168	   H	11.599	3.603	-2.104	 H	12	ALA12	0.000	
169	  HA	13.612	2.460	-2.202	 H	12	ALA12	0.000	
170	 HB1	14.557	4.836	-1.715	 H	12	ALA12	0.000	
171	 HB2	15.632	3.586	-1.064	 H	12	ALA12	0.000	
172	 HB3	14.564	4.481	0.016	 H	12	ALA12	0.000	
173	   N	12.588	0.814	-0.203	N.am	13	ASN13	0.000	
174	  CA	12.541	-0.377	0.679	C.3	13	ASN13	0.000	
175	   C	13.420	-1.545	0.108	C.2	13	ASN13	0.000	
176	   O	13.226	-1.892	-1.063	O.2	13	ASN13	0.000	
177	  CB	11.050	-0.785	0.858	C.3	13	ASN13	0.000	
178	  CG	10.784	-1.933	1.853	C.2	13	ASN13	0.000	
179	 ND2	10.693	-1.639	3.142	N.pl3	13	ASN13	0.000	
180	 OD1	10.662	-3.095	1.466	O.2	13	ASN13	0.000	
181	   H	11.744	1.120	-0.696	 H	13	ASN13	0.000	
182	  HA	12.893	-0.044	1.667	 H	13	ASN13	0.000	
183	 HB2	10.450	0.093	1.169	 H	13	ASN13	0.000	
184	 HB3	10.624	-1.073	-0.122	 H	13	ASN13	0.000	
185	HD21	10.785	-0.650	3.397	 H	13	ASN13	0.000	
186	HD22	10.514	-2.424	3.779	 H	13	ASN13	0.000	
187	   N	14.317	-2.225	0.885	N.am	14	PRO14	0.000	
188	  CA	15.175	-3.329	0.403	C.3	14	PRO14	0.000	
189	   C	14.450	-4.571	-0.181	C.2	14	PRO14	0.000	
190	   O	13.577	-5.170	0.449	O.2	14	PRO14	0.000	
191	  CB	16.117	-3.663	1.559	C.3	14	PRO14	0.000	
192	  CG	15.528	-2.945	2.730	C.3	14	PRO14	0.000	
193	  CD	14.874	-1.727	2.143	C.3	14	PRO14	0.000	
194	  HA	15.870	-2.858	-0.279	 H	14	PRO14	0.000	
195	 HB2	16.290	-4.740	1.745	 H	14	PRO14	0.000	
196	 HB3	17.085	-3.166	1.407	 H	14	PRO14	0.000	
197	 HG2	14.759	-3.556	3.182	 H	14	PRO14	0.000	
198	 HG3	16.314	-2.688	3.441	 H	14	PRO14	0.000	
199	 HD2	14.156	-1.325	2.848	 H	14	PRO14	0.000	
200	 HD3	15.647	-0.986	1.933	 H	14	PRO14	0.000	
201	   N	14.800	-4.975	-1.393	N.pl3	15	NH215	0.000	
202	 HN1	14.310	-5.797	-1.763	 H	15	NH215	0.000	
203	 HN2	15.533	-4.433	-1.864	 H	15	NH215	0.000	
@<TRIPOS>BOND
1 1 2 1
2 1 21 1
3 1 22 1
4 2 3 1
5 2 5 1
6 2 10 1
7 3 4 2
8 3 23 1
9 5 6 1
10 5 11 1
11 5 12 1
12 6 7 1
13 6 13 1
14 6 14 1
15 7 8 1
16 7 15 1
17 7 16 1
18 8 9 1
19 8 17 1
20 8 18 1
21 9 19 1
22 9 20 1
23 23 24 1
24 23 31 1
25 24 25 1
26 24 27 1
27 24 32 1
28 25 26 2
29 25 37 1
30 27 28 1
31 27 33 1
32 27 34 1
33 28 29 1
34 28 30 2
35 29 35 1
36 29 36 1
37 37 38 1
38 37 43 1
39 38 39 1
40 38 41 1
41 38 44 1
42 39 40 2
43 39 48 1
44 41 42 1
45 41 45 1
46 41 46 1
47 42 47 1
48 48 49 1
49 48 59 1
50 49 50 1
51 49 52 1
52 49 60 1
53 50 51 2
54 50 68 1
55 52 53 1
56 52 61 1
57 52 62 1
58 53 54 2
59 53 55 1
60 54 56 1
61 54 63 1
62 55 57 2
63 55 64 1
64 56 58 2
65 56 65 1
66 57 58 1
67 57 66 1
68 58 67 1
69 68 69 1
70 68 74 1
71 69 70 1
72 69 72 1
73 69 75 1
74 70 71 2
75 70 79 1
76 72 73 1
77 72 76 1
78 72 77 1
79 73 78 1
80 79 80 1
81 79 87 1
82 80 81 1
83 80 83 1
84 80 88 1
85 81 82 2
86 81 98 1
87 83 84 1
88 83 89 1
89 83 90 1
90 84 85 1
91 84 86 1
92 84 91 1
93 85 92 1
94 85 93 1
95 85 94 1
96 86 95 1
97 86 96 1
98 86 97 1
99 98 99 1
100 98 102 1
101 99 100 1
102 99 103 1
103 99 104 1
104 100 101 2
105 100 105 1
106 105 106 1
107 105 114 1
108 106 107 1
109 106 109 1
110 106 115 1
111 107 108 2
112 107 121 1
113 109 110 1
114 109 116 1
115 109 117 1
116 110 111 1
117 110 118 1
118 110 119 1
119 111 112 2
120 111 113 1
121 113 120 1
122 121 122 1
123 121 129 1
124 122 123 1
125 122 125 1
126 122 130 1
127 123 124 2
128 123 135 1
129 125 126 1
130 125 131 1
131 125 132 1
132 126 127 1
133 126 128 2
134 127 133 1
135 127 134 1
136 135 136 1
137 135 141 1
138 136 137 1
139 136 139 1
140 136 142 1
141 137 138 2
142 137 149 1
143 139 140 1
144 139 143 1
145 139 144 1
146 140 141 1
147 140 145 1
148 140 146 1
149 141 147 1
150 141 148 1
151 149 150 1
152 149 157 1
153 150 151 1
154 150 153 1
155 150 158 1
156 151 152 2
157 151 163 1
158 153 154 1
159 153 159 1
160 153 160 1
161 154 155 1
162 154 156 2
163 155 161 1
164 155 162 1
165 163 164 1
166 163 168 1
167 164 165 1
168 164 167 1
169 164 169 1
170 165 166 2
171 165 173 1
172 167 170 1
173 167 171 1
174 167 172 1
175 173 174 1
176 173 181 1
177 174 175 1
178 174 177 1
179 174 182 1
180 175 176 2
181 175 187 1
182 177 178 1
183 177 183 1
184 177 184 1
185 178 179 1
186 178 180 2
187 179 185 1
188 179 186 1
189 187 188 1
190 187 193 1
191 188 189 1
192 188 191 1
193 188 194 1
194 189 190 2
195 189 201 1
196 191 192 1
197 191 195 1
198 191 196 1
199 192 193 1
200 192 197 1
201 192 198 1
202 193 199 1
203 193 200 1
204 201 202 1
205 201 203 1
@<TRIPOS>SUBSTRUCTURE
1	LYS1	1	RESIDUE	1 A	LYS
2	ASN2	23	RESIDUE	1 A	ASN
3	SER3	37	RESIDUE	1 A	SER
4	PHE4	48	RESIDUE	1 A	PHE
5	SER5	68	RESIDUE	1 A	SER
6	LEU6	79	RESIDUE	1 A	LEU
7	GLY7	98	RESIDUE	1 A	GLY
8	GLU8	105	RESIDUE	1 A	GLU
9	ASN9	121	RESIDUE	1 A	ASN
10	PRO10	135	RESIDUE	1 A	PRO
11	ASN11	149	RESIDUE	1 A	ASN
12	ALA12	163	RESIDUE	1 A	ALA
13	ASN13	173	RESIDUE	1 A	ASN
14	PRO14	187	RESIDUE	1 A	PRO
15	NH215	201	GROUP	1 A	NH2
