# created with PyMOL 2.3.3
@<TRIPOS>MOLECULE
7843
14 13 1                 
SMALL
USER_CHARGES
@<TRIPOS>ATOM
1	   C	-0.563	0.516	0.007	C.3	1	UNK0	0.000	
2	   C	0.563	-0.516	0.007	C.3	1	UNK0	0.000	
3	   C	-1.929	-0.151	-0.007	C.3	1	UNK0	0.000	
4	   C	1.929	0.150	-0.007	C.3	1	UNK0	0.000	
5	   H	-0.472	1.167	-0.871	 H	1	UNK0	0.000	
6	   H	-0.482	1.155	0.894	 H	1	UNK0	0.000	
7	   H	0.482	-1.155	0.894	 H	1	UNK0	0.000	
8	   H	0.472	-1.166	-0.871	 H	1	UNK0	0.000	
9	   H	-2.054	-0.771	-0.900	 H	1	UNK0	0.000	
10	   H	-2.065	-0.786	0.874	 H	1	UNK0	0.000	
11	   H	-2.720	0.606	-0.006	 H	1	UNK0	0.000	
12	   H	2.054	0.771	-0.900	 H	1	UNK0	0.000	
13	   H	2.720	-0.606	-0.006	 H	1	UNK0	0.000	
14	   H	2.065	0.785	0.874	 H	1	UNK0	0.000	
@<TRIPOS>BOND
1 1 2 1
2 1 3 1
3 1 5 1
4 1 6 1
5 2 4 1
6 2 7 1
7 2 8 1
8 3 9 1
9 3 10 1
10 3 11 1
11 4 12 1
12 4 13 1
13 4 14 1
@<TRIPOS>SUBSTRUCTURE
1	UNK0	1	GROUP	1 ****	UNK
