# created with PyMOL 2.3.3
@<TRIPOS>MOLECULE
diala
23 22 2                 
SMALL
USER_CHARGES
@<TRIPOS>ATOM
1	   N	7.273	-0.781	1.149	N.4	1	ALA1	0.000	
2	  CA	7.162	-0.314	-0.225	C.3	1	ALA1	0.000	
3	   C	7.351	1.200	-0.359	C.2	1	ALA1	0.000	
4	   O	7.560	1.818	0.627	O.2	1	ALA1	0.000	
5	  CB	5.746	-0.689	-0.719	C.3	1	ALA1	0.000	
6	  HA	7.904	-0.824	-0.840	 H	1	ALA1	0.000	
7	 HB1	5.619	-0.356	-1.749	 H	1	ALA1	0.000	
8	 HB2	5.000	-0.206	-0.088	 H	1	ALA1	0.000	
9	 HB3	5.618	-1.770	-0.669	 H	1	ALA1	0.000	
10	 HT1	7.133	-1.841	1.178	 H	1	ALA1	0.000	
11	 HT2	6.525	-0.306	1.749	 H	1	ALA1	0.000	
12	 HT3	8.243	-0.540	1.531	 H	1	ALA1	0.000	
13	   N	7.283	1.804	-1.537	N.am	2	ALA2	0.000	
14	  CA	7.449	3.233	-1.764	C.3	2	ALA2	0.000	
15	   C	7.315	3.623	-3.238	C.2	2	ALA2	0.000	
16	   O	7.090	2.726	-4.050	O.co2	2	ALA2	0.000	
17	  CB	8.866	3.609	-1.271	C.3	2	ALA2	0.000	
18	 OXT	7.438	4.812	-3.530	O.co2	2	ALA2	0.000	
19	  HN	7.097	1.314	-2.469	 H	2	ALA2	0.000	
20	  HA	6.709	3.778	-1.179	 H	2	ALA2	0.000	
21	 HB1	9.033	4.675	-1.424	 H	2	ALA2	0.000	
22	 HB2	9.609	3.042	-1.832	 H	2	ALA2	0.000	
23	 HB3	8.956	3.376	-0.211	 H	2	ALA2	0.000	
@<TRIPOS>BOND
1 1 2 1
2 1 10 1
3 1 11 1
4 1 12 1
5 2 3 1
6 2 5 1
7 2 6 1
8 3 4 2
9 3 13 1
10 5 7 1
11 5 8 1
12 5 9 1
13 13 14 1
14 13 19 1
15 14 15 1
16 14 17 1
17 14 20 1
18 15 16 2
19 15 18 1
20 17 21 1
21 17 22 1
22 17 23 1
@<TRIPOS>SUBSTRUCTURE
1	ALA1	1	RESIDUE	1 A	ALA
2	ALA2	13	RESIDUE	1 A	ALA
