# created with PyMOL 2.3.3
@<TRIPOS>MOLECULE
750
10 9 1                  
SMALL
USER_CHARGES
@<TRIPOS>ATOM
1	   O	-1.649	0.657	-0.010	O.3	1	UNK0	0.000	
2	   O	-0.484	-1.293	-0.001	O.co2	1	UNK0	0.000	
3	   N	1.901	-0.081	-0.009	N.3	1	UNK0	0.000	
4	   C	0.734	0.787	0.008	C.3	1	UNK0	0.000	
5	   C	-0.502	-0.069	0.012	C.2	1	UNK0	0.000	
6	   H	0.733	1.421	-0.882	 H	1	UNK0	0.000	
7	   H	0.746	1.409	0.907	 H	1	UNK0	0.000	
8	   H	1.874	-0.684	-0.830	 H	1	UNK0	0.000	
9	   H	1.889	-0.697	0.803	 H	1	UNK0	0.000	
10	   H	-2.445	0.084	-0.026	 H	1	UNK0	0.000	
@<TRIPOS>BOND
1 1 5 1
2 1 10 1
3 2 5 2
4 3 4 1
5 3 8 1
6 3 9 1
7 4 5 1
8 4 6 1
9 4 7 1
@<TRIPOS>SUBSTRUCTURE
1	UNK0	1	GROUP	1 ****	UNK
