# created with PyMOL 2.3.3
@<TRIPOS>MOLECULE
8900
23 22 1                 
SMALL
USER_CHARGES
@<TRIPOS>ATOM
1	   C	0.012	-0.506	0.021	C.3	1	UNK0	0.000	
2	   C	-1.256	0.351	0.009	C.3	1	UNK0	0.000	
3	   C	1.270	0.366	0.027	C.3	1	UNK0	0.000	
4	   C	-2.545	-0.474	-0.022	C.3	1	UNK0	0.000	
5	   C	2.538	-0.486	-0.000	C.3	1	UNK0	0.000	
6	   C	-3.808	0.372	-0.007	C.3	1	UNK0	0.000	
7	   C	3.789	0.377	-0.027	C.3	1	UNK0	0.000	
8	   H	0.009	-1.156	0.903	 H	1	UNK0	0.000	
9	   H	0.019	-1.157	-0.862	 H	1	UNK0	0.000	
10	   H	-1.238	1.015	-0.864	 H	1	UNK0	0.000	
11	   H	-1.264	0.995	0.897	 H	1	UNK0	0.000	
12	   H	1.272	1.003	0.920	 H	1	UNK0	0.000	
13	   H	1.258	1.032	-0.845	 H	1	UNK0	0.000	
14	   H	-2.550	-1.104	-0.919	 H	1	UNK0	0.000	
15	   H	-2.563	-1.150	0.842	 H	1	UNK0	0.000	
16	   H	2.567	-1.137	0.881	 H	1	UNK0	0.000	
17	   H	2.532	-1.136	-0.883	 H	1	UNK0	0.000	
18	   H	-4.695	-0.268	-0.031	 H	1	UNK0	0.000	
19	   H	-3.843	1.036	-0.877	 H	1	UNK0	0.000	
20	   H	-3.855	0.988	0.897	 H	1	UNK0	0.000	
21	   H	3.806	1.016	-0.916	 H	1	UNK0	0.000	
22	   H	3.842	1.018	0.858	 H	1	UNK0	0.000	
23	   H	4.684	-0.253	-0.045	 H	1	UNK0	0.000	
@<TRIPOS>BOND
1 1 2 1
2 1 3 1
3 1 8 1
4 1 9 1
5 2 4 1
6 2 10 1
7 2 11 1
8 3 5 1
9 3 12 1
10 3 13 1
11 4 6 1
12 4 14 1
13 4 15 1
14 5 7 1
15 5 16 1
16 5 17 1
17 6 18 1
18 6 19 1
19 6 20 1
20 7 21 1
21 7 22 1
22 7 23 1
@<TRIPOS>SUBSTRUCTURE
1	UNK0	1	GROUP	1 ****	UNK
