# created with PyMOL 2.3.3
@<TRIPOS>MOLECULE
8058
20 19 1                 
SMALL
USER_CHARGES
@<TRIPOS>ATOM
1	   C	0.656	0.394	0.000	C.3	1	UNK0	0.000	
2	   C	-0.656	-0.393	0.023	C.3	1	UNK0	0.000	
3	   C	1.865	-0.541	-0.011	C.3	1	UNK0	0.000	
4	   C	-1.865	0.541	0.000	C.3	1	UNK0	0.000	
5	   C	3.171	0.237	-0.000	C.3	1	UNK0	0.000	
6	   C	-3.171	-0.237	-0.012	C.3	1	UNK0	0.000	
7	   H	0.684	1.039	-0.887	 H	1	UNK0	0.000	
8	   H	0.705	1.049	0.878	 H	1	UNK0	0.000	
9	   H	-0.693	-1.023	0.920	 H	1	UNK0	0.000	
10	   H	-0.695	-1.064	-0.844	 H	1	UNK0	0.000	
11	   H	1.834	-1.202	0.863	 H	1	UNK0	0.000	
12	   H	1.833	-1.180	-0.901	 H	1	UNK0	0.000	
13	   H	-1.844	1.198	0.877	 H	1	UNK0	0.000	
14	   H	-1.823	1.184	-0.887	 H	1	UNK0	0.000	
15	   H	3.249	0.886	-0.878	 H	1	UNK0	0.000	
16	   H	4.022	-0.451	-0.010	 H	1	UNK0	0.000	
17	   H	3.248	0.861	0.896	 H	1	UNK0	0.000	
18	   H	-3.237	-0.879	-0.896	 H	1	UNK0	0.000	
19	   H	-3.259	-0.868	0.879	 H	1	UNK0	0.000	
20	   H	-4.022	0.451	-0.026	 H	1	UNK0	0.000	
@<TRIPOS>BOND
1 1 2 1
2 1 3 1
3 1 7 1
4 1 8 1
5 2 4 1
6 2 9 1
7 2 10 1
8 3 5 1
9 3 11 1
10 3 12 1
11 4 6 1
12 4 13 1
13 4 14 1
14 5 15 1
15 5 16 1
16 5 17 1
17 6 18 1
18 6 19 1
19 6 20 1
@<TRIPOS>SUBSTRUCTURE
1	UNK0	1	GROUP	1 ****	UNK
