# created with PyMOL 2.3.3
@<TRIPOS>MOLECULE
6360
14 13 1                 
SMALL
USER_CHARGES
@<TRIPOS>ATOM
1	   C	0.000	0.000	-0.360	C.3	1	UNK0	0.000	
2	   C	-0.535	1.347	0.120	C.3	1	UNK0	0.000	
3	   C	1.434	-0.211	0.120	C.3	1	UNK0	0.000	
4	   C	-0.900	-1.137	0.120	C.3	1	UNK0	0.000	
5	   H	0.000	0.000	-1.457	 H	1	UNK0	0.000	
6	   H	-0.556	1.401	1.214	 H	1	UNK0	0.000	
7	   H	0.092	2.167	-0.247	 H	1	UNK0	0.000	
8	   H	-1.553	1.515	-0.247	 H	1	UNK0	0.000	
9	   H	1.491	-0.219	1.214	 H	1	UNK0	0.000	
10	   H	2.088	0.587	-0.247	 H	1	UNK0	0.000	
11	   H	1.831	-1.163	-0.247	 H	1	UNK0	0.000	
12	   H	-0.935	-1.182	1.214	 H	1	UNK0	0.000	
13	   H	-0.535	-2.102	-0.247	 H	1	UNK0	0.000	
14	   H	-1.923	-1.004	-0.247	 H	1	UNK0	0.000	
@<TRIPOS>BOND
1 1 2 1
2 1 3 1
3 1 4 1
4 1 5 1
5 2 6 1
6 2 7 1
7 2 8 1
8 3 9 1
9 3 10 1
10 3 11 1
11 4 12 1
12 4 13 1
13 4 14 1
@<TRIPOS>SUBSTRUCTURE
1	UNK0	1	GROUP	1 ****	UNK
