# created with PyMOL 2.3.3
@<TRIPOS>MOLECULE
6556
17 16 1                 
SMALL
USER_CHARGES
@<TRIPOS>ATOM
1	   C	-0.598	-0.005	0.464	C.3	1	UNK0	0.000	
2	   C	0.921	-0.061	0.706	C.3	1	UNK0	0.000	
3	   C	-1.024	1.266	-0.270	C.3	1	UNK0	0.000	
4	   C	-1.043	-1.235	-0.330	C.3	1	UNK0	0.000	
5	   C	1.745	0.036	-0.570	C.3	1	UNK0	0.000	
6	   H	-1.095	-0.026	1.442	 H	1	UNK0	0.000	
7	   H	1.177	-0.989	1.231	 H	1	UNK0	0.000	
8	   H	1.207	0.763	1.371	 H	1	UNK0	0.000	
9	   H	-0.667	1.289	-1.304	 H	1	UNK0	0.000	
10	   H	-0.650	2.157	0.244	 H	1	UNK0	0.000	
11	   H	-2.117	1.337	-0.302	 H	1	UNK0	0.000	
12	   H	-0.671	-1.224	-1.360	 H	1	UNK0	0.000	
13	   H	-2.137	-1.276	-0.381	 H	1	UNK0	0.000	
14	   H	-0.702	-2.159	0.150	 H	1	UNK0	0.000	
15	   H	2.810	-0.018	-0.320	 H	1	UNK0	0.000	
16	   H	1.584	0.984	-1.090	 H	1	UNK0	0.000	
17	   H	1.534	-0.785	-1.260	 H	1	UNK0	0.000	
@<TRIPOS>BOND
1 1 2 1
2 1 3 1
3 1 4 1
4 1 6 1
5 2 5 1
6 2 7 1
7 2 8 1
8 3 9 1
9 3 10 1
10 3 11 1
11 4 12 1
12 4 13 1
13 4 14 1
14 5 15 1
15 5 16 1
16 5 17 1
@<TRIPOS>SUBSTRUCTURE
1	UNK0	1	GROUP	1 ****	UNK
