# created with PyMOL 2.3.3
@<TRIPOS>MOLECULE
10041
17 16 1                 
SMALL
USER_CHARGES
@<TRIPOS>ATOM
1	   C	0.000	0.000	0.000	C.3	1	UNK0	0.000	
2	   C	-1.347	0.373	0.636	C.3	1	UNK0	0.000	
3	   C	0.896	1.245	-0.068	C.3	1	UNK0	0.000	
4	   C	-0.236	-0.539	-1.418	C.3	1	UNK0	0.000	
5	   C	0.686	-1.079	0.850	C.3	1	UNK0	0.000	
6	   H	-1.211	0.761	1.652	 H	1	UNK0	0.000	
7	   H	-1.862	1.143	0.051	 H	1	UNK0	0.000	
8	   H	-2.010	-0.498	0.698	 H	1	UNK0	0.000	
9	   H	1.867	1.010	-0.518	 H	1	UNK0	0.000	
10	   H	1.083	1.653	0.932	 H	1	UNK0	0.000	
11	   H	0.432	2.035	-0.669	 H	1	UNK0	0.000	
12	   H	-0.874	-1.429	-1.403	 H	1	UNK0	0.000	
13	   H	-0.726	0.211	-2.050	 H	1	UNK0	0.000	
14	   H	0.709	-0.814	-1.900	 H	1	UNK0	0.000	
15	   H	0.868	-0.723	1.870	 H	1	UNK0	0.000	
16	   H	1.652	-1.367	0.420	 H	1	UNK0	0.000	
17	   H	0.069	-1.982	0.916	 H	1	UNK0	0.000	
@<TRIPOS>BOND
1 1 2 1
2 1 3 1
3 1 4 1
4 1 5 1
5 2 6 1
6 2 7 1
7 2 8 1
8 3 9 1
9 3 10 1
10 3 11 1
11 4 12 1
12 4 13 1
13 4 14 1
14 5 15 1
15 5 16 1
16 5 17 1
@<TRIPOS>SUBSTRUCTURE
1	UNK0	1	GROUP	1 ****	UNK
