# created with PyMOL 2.3.3
@<TRIPOS>MOLECULE
12401
59 58 1                 
SMALL
USER_CHARGES
@<TRIPOS>ATOM
1	   C	9.794	-0.250	0.000	C.3	1	UNK0	0.000	
2	   C	10.660	0.250	0.000	C.3	1	UNK0	0.000	
3	   C	8.928	0.250	0.000	C.3	1	UNK0	0.000	
4	   C	11.526	-0.250	0.000	C.3	1	UNK0	0.000	
5	   C	8.062	-0.250	0.000	C.3	1	UNK0	0.000	
6	   C	12.392	0.250	0.000	C.3	1	UNK0	0.000	
7	   C	7.196	0.250	0.000	C.3	1	UNK0	0.000	
8	   C	13.258	-0.250	0.000	C.3	1	UNK0	0.000	
9	   C	6.330	-0.250	0.000	C.3	1	UNK0	0.000	
10	   C	14.124	0.250	0.000	C.3	1	UNK0	0.000	
11	   C	5.464	0.250	0.000	C.3	1	UNK0	0.000	
12	   C	14.990	-0.250	0.000	C.3	1	UNK0	0.000	
13	   C	4.598	-0.250	0.000	C.3	1	UNK0	0.000	
14	   C	15.856	0.250	0.000	C.3	1	UNK0	0.000	
15	   C	3.732	0.250	0.000	C.3	1	UNK0	0.000	
16	   C	16.722	-0.250	0.000	C.3	1	UNK0	0.000	
17	   C	2.866	-0.250	0.000	C.3	1	UNK0	0.000	
18	   C	17.588	0.250	0.000	C.3	1	UNK0	0.000	
19	   C	2.000	0.250	0.000	C.3	1	UNK0	0.000	
20	   H	9.396	-0.725	0.000	 H	1	UNK0	0.000	
21	   H	10.193	-0.725	0.000	 H	1	UNK0	0.000	
22	   H	11.059	0.725	0.000	 H	1	UNK0	0.000	
23	   H	10.262	0.725	0.000	 H	1	UNK0	0.000	
24	   H	9.327	0.725	0.000	 H	1	UNK0	0.000	
25	   H	8.530	0.725	0.000	 H	1	UNK0	0.000	
26	   H	11.128	-0.725	0.000	 H	1	UNK0	0.000	
27	   H	11.925	-0.725	0.000	 H	1	UNK0	0.000	
28	   H	7.664	-0.725	0.000	 H	1	UNK0	0.000	
29	   H	8.461	-0.725	0.000	 H	1	UNK0	0.000	
30	   H	12.791	0.725	0.000	 H	1	UNK0	0.000	
31	   H	11.994	0.725	0.000	 H	1	UNK0	0.000	
32	   H	7.595	0.725	0.000	 H	1	UNK0	0.000	
33	   H	6.798	0.725	0.000	 H	1	UNK0	0.000	
34	   H	12.860	-0.725	0.000	 H	1	UNK0	0.000	
35	   H	13.657	-0.725	0.000	 H	1	UNK0	0.000	
36	   H	5.932	-0.725	0.000	 H	1	UNK0	0.000	
37	   H	6.729	-0.725	0.000	 H	1	UNK0	0.000	
38	   H	14.523	0.725	0.000	 H	1	UNK0	0.000	
39	   H	13.726	0.725	0.000	 H	1	UNK0	0.000	
40	   H	5.863	0.725	0.000	 H	1	UNK0	0.000	
41	   H	5.066	0.725	0.000	 H	1	UNK0	0.000	
42	   H	14.592	-0.725	0.000	 H	1	UNK0	0.000	
43	   H	15.389	-0.725	0.000	 H	1	UNK0	0.000	
44	   H	4.200	-0.725	0.000	 H	1	UNK0	0.000	
45	   H	4.997	-0.725	0.000	 H	1	UNK0	0.000	
46	   H	16.255	0.725	0.000	 H	1	UNK0	0.000	
47	   H	15.458	0.725	0.000	 H	1	UNK0	0.000	
48	   H	4.131	0.725	0.000	 H	1	UNK0	0.000	
49	   H	3.333	0.725	0.000	 H	1	UNK0	0.000	
50	   H	16.324	-0.725	0.000	 H	1	UNK0	0.000	
51	   H	17.121	-0.725	0.000	 H	1	UNK0	0.000	
52	   H	2.467	-0.725	0.000	 H	1	UNK0	0.000	
53	   H	3.265	-0.725	0.000	 H	1	UNK0	0.000	
54	   H	17.899	-0.287	0.000	 H	1	UNK0	0.000	
55	   H	18.125	0.560	0.000	 H	1	UNK0	0.000	
56	   H	17.278	0.787	0.000	 H	1	UNK0	0.000	
57	   H	2.310	0.787	0.000	 H	1	UNK0	0.000	
58	   H	1.463	0.560	0.000	 H	1	UNK0	0.000	
59	   H	1.690	-0.287	0.000	 H	1	UNK0	0.000	
@<TRIPOS>BOND
1 1 2 1
2 1 3 1
3 1 20 1
4 1 21 1
5 2 4 1
6 2 22 1
7 2 23 1
8 3 5 1
9 3 24 1
10 3 25 1
11 4 6 1
12 4 26 1
13 4 27 1
14 5 7 1
15 5 28 1
16 5 29 1
17 6 8 1
18 6 30 1
19 6 31 1
20 7 9 1
21 7 32 1
22 7 33 1
23 8 10 1
24 8 34 1
25 8 35 1
26 9 11 1
27 9 36 1
28 9 37 1
29 10 12 1
30 10 38 1
31 10 39 1
32 11 13 1
33 11 40 1
34 11 41 1
35 12 14 1
36 12 42 1
37 12 43 1
38 13 15 1
39 13 44 1
40 13 45 1
41 14 16 1
42 14 46 1
43 14 47 1
44 15 17 1
45 15 48 1
46 15 49 1
47 16 18 1
48 16 50 1
49 16 51 1
50 17 19 1
51 17 52 1
52 17 53 1
53 18 54 1
54 18 55 1
55 18 56 1
56 19 57 1
57 19 58 1
58 19 59 1
@<TRIPOS>SUBSTRUCTURE
1	UNK0	1	GROUP	1 ****	UNK
