# created with PyMOL 2.3.3
@<TRIPOS>MOLECULE
8003
17 16 1                 
SMALL
USER_CHARGES
@<TRIPOS>ATOM
1	   C	0.000	0.348	-0.023	C.3	1	UNK0	0.000	
2	   C	1.262	-0.514	-0.000	C.3	1	UNK0	0.000	
3	   C	-1.262	-0.514	-0.000	C.3	1	UNK0	0.000	
4	   C	2.520	0.340	0.012	C.3	1	UNK0	0.000	
5	   C	-2.520	0.340	0.012	C.3	1	UNK0	0.000	
6	   H	0.000	0.978	-0.920	 H	1	UNK0	0.000	
7	   H	0.000	1.020	0.844	 H	1	UNK0	0.000	
8	   H	1.280	-1.171	-0.877	 H	1	UNK0	0.000	
9	   H	1.258	-1.158	0.887	 H	1	UNK0	0.000	
10	   H	-1.280	-1.171	-0.877	 H	1	UNK0	0.000	
11	   H	-1.258	-1.158	0.887	 H	1	UNK0	0.000	
12	   H	2.548	0.985	0.896	 H	1	UNK0	0.000	
13	   H	2.571	0.975	-0.879	 H	1	UNK0	0.000	
14	   H	3.410	-0.296	0.026	 H	1	UNK0	0.000	
15	   H	-2.548	0.985	0.896	 H	1	UNK0	0.000	
16	   H	-3.410	-0.296	0.026	 H	1	UNK0	0.000	
17	   H	-2.571	0.975	-0.879	 H	1	UNK0	0.000	
@<TRIPOS>BOND
1 1 2 1
2 1 3 1
3 1 6 1
4 1 7 1
5 2 4 1
6 2 8 1
7 2 9 1
8 3 5 1
9 3 10 1
10 3 11 1
11 4 12 1
12 4 13 1
13 4 14 1
14 5 15 1
15 5 16 1
16 5 17 1
@<TRIPOS>SUBSTRUCTURE
1	UNK0	1	GROUP	1 ****	UNK
