# created with PyMOL 2.3.3
@<TRIPOS>MOLECULE
6334
11 10 1                 
SMALL
USER_CHARGES
@<TRIPOS>ATOM
1	   C	0.000	-0.569	0.000	C.3	1	UNK0	0.000	
2	   C	-1.257	0.284	0.000	C.3	1	UNK0	0.000	
3	   C	1.257	0.285	0.000	C.3	1	UNK0	0.000	
4	   H	0.000	-1.218	0.882	 H	1	UNK0	0.000	
5	   H	0.000	-1.218	-0.882	 H	1	UNK0	0.000	
6	   H	-1.297	0.924	0.887	 H	1	UNK0	0.000	
7	   H	-1.297	0.924	-0.887	 H	1	UNK0	0.000	
8	   H	-2.148	-0.352	-0.000	 H	1	UNK0	0.000	
9	   H	2.148	-0.352	0.000	 H	1	UNK0	0.000	
10	   H	1.297	0.924	0.887	 H	1	UNK0	0.000	
11	   H	1.297	0.924	-0.887	 H	1	UNK0	0.000	
@<TRIPOS>BOND
1 1 2 1
2 1 3 1
3 1 4 1
4 1 5 1
5 2 6 1
6 2 7 1
7 2 8 1
8 3 9 1
9 3 10 1
10 3 11 1
@<TRIPOS>SUBSTRUCTURE
1	UNK0	1	GROUP	1 ****	UNK
