# created with PyMOL 2.3.3
@<TRIPOS>MOLECULE
Tripeptide1
51 50 3                 
SMALL
USER_CHARGES
@<TRIPOS>ATOM
1	   N	7.273	-0.781	1.149	N.4	1	ALA1	0.000	
2	  CA	7.162	-0.314	-0.225	C.3	1	ALA1	0.000	
3	   C	7.351	1.200	-0.359	C.2	1	ALA1	0.000	
4	   O	7.560	1.818	0.627	O.2	1	ALA1	0.000	
5	  CB	5.746	-0.689	-0.719	C.3	1	ALA1	0.000	
6	  HA	7.904	-0.824	-0.840	 H	1	ALA1	0.000	
7	 HB1	5.619	-0.356	-1.749	 H	1	ALA1	0.000	
8	 HB2	5.000	-0.206	-0.088	 H	1	ALA1	0.000	
9	 HB3	5.618	-1.770	-0.669	 H	1	ALA1	0.000	
10	 HT1	7.133	-1.841	1.178	 H	1	ALA1	0.000	
11	 HT2	6.525	-0.306	1.749	 H	1	ALA1	0.000	
12	 HT3	8.243	-0.540	1.531	 H	1	ALA1	0.000	
13	   N	7.283	1.804	-1.537	N.am	2	ARG2	0.000	
14	  CA	7.449	3.233	-1.764	C.3	2	ARG2	0.000	
15	   C	7.315	3.623	-3.238	C.2	2	ARG2	0.000	
16	   O	7.098	2.762	-4.018	O.2	2	ARG2	0.000	
17	  CB	8.906	3.602	-1.291	C.3	2	ARG2	0.000	
18	  CG	9.141	5.125	-1.405	C.3	2	ARG2	0.000	
19	  CD	10.589	5.452	-1.000	C.3	2	ARG2	0.000	
20	  NE	10.794	6.891	-1.015	N.pl3	2	ARG2	0.000	
21	  CZ	11.943	7.410	-0.760	C.cat	2	ARG2	0.000	
22	 NH1	13.087	6.606	-0.459	N.pl3	2	ARG2	0.000	
23	 NH2	12.093	8.822	-0.777	N.pl3	2	ARG2	0.000	
24	  HN	7.097	1.314	-2.469	 H	2	ARG2	0.000	
25	  HA	6.720	3.785	-1.170	 H	2	ARG2	0.000	
26	 HB1	9.035	3.296	-0.253	 H	2	ARG2	0.000	
27	 HB2	9.629	3.080	-1.918	 H	2	ARG2	0.000	
28	 HG1	8.971	5.442	-2.434	 H	2	ARG2	0.000	
29	 HG2	8.451	5.649	-0.744	 H	2	ARG2	0.000	
30	 HD1	10.778	5.071	0.004	 H	2	ARG2	0.000	
31	 HD2	11.276	4.982	-1.703	 H	2	ARG2	0.000	
32	  HE	9.970	7.533	-1.244	 H	2	ARG2	0.000	
33	1HH1	13.001	5.539	-0.441	 H	2	ARG2	0.000	
34	2HH1	14.028	7.070	-0.252	 H	2	ARG2	0.000	
35	1HH2	11.253	9.447	-1.000	 H	2	ARG2	0.000	
36	2HH2	13.045	9.262	-0.566	 H	2	ARG2	0.000	
37	   N	7.436	4.882	-3.635	N.am	3	ASN3	0.000	
38	  CA	7.324	5.349	-5.009	C.3	3	ASN3	0.000	
39	   C	7.514	6.863	-5.143	C.2	3	ASN3	0.000	
40	   O	7.731	7.506	-4.117	O.co2	3	ASN3	0.000	
41	  CB	5.861	5.006	-5.462	C.3	3	ASN3	0.000	
42	  CG	5.565	3.521	-5.442	C.2	3	ASN3	0.000	
43	 ND2	6.428	2.610	-6.065	N.pl3	3	ASN3	0.000	
44	 OD1	4.527	3.108	-4.910	O.2	3	ASN3	0.000	
45	 OXT	7.438	7.352	-6.269	O.co2	3	ASN3	0.000	
46	  HN	7.632	5.713	-2.990	 H	3	ASN3	0.000	
47	  HA	8.042	4.826	-5.640	 H	3	ASN3	0.000	
48	 HB1	5.164	5.507	-4.791	 H	3	ASN3	0.000	
49	 HB2	5.718	5.373	-6.478	 H	3	ASN3	0.000	
50	1HD2	7.308	2.961	-6.563	 H	3	ASN3	0.000	
51	2HD2	6.207	1.563	-6.043	 H	3	ASN3	0.000	
@<TRIPOS>BOND
1 1 2 1
2 1 10 1
3 1 11 1
4 1 12 1
5 2 3 1
6 2 5 1
7 2 6 1
8 3 4 2
9 3 13 1
10 5 7 1
11 5 8 1
12 5 9 1
13 13 14 1
14 13 24 1
15 14 15 1
16 14 17 1
17 14 25 1
18 15 16 2
19 15 37 1
20 17 18 1
21 17 26 1
22 17 27 1
23 18 19 1
24 18 28 1
25 18 29 1
26 19 20 1
27 19 30 1
28 19 31 1
29 20 21 1
30 20 32 1
31 21 22 2
32 21 23 1
33 22 33 1
34 22 34 1
35 23 35 1
36 23 36 1
37 37 38 1
38 37 46 1
39 38 39 1
40 38 41 1
41 38 47 1
42 39 40 2
43 39 45 1
44 41 42 1
45 41 48 1
46 41 49 1
47 42 43 1
48 42 44 2
49 43 50 1
50 43 51 1
@<TRIPOS>SUBSTRUCTURE
1	ALA1	1	RESIDUE	1 A	ALA
2	ARG2	13	RESIDUE	1 A	ARG
3	ASN3	37	RESIDUE	1 A	ASN
